*Heading
** Job name: Burst_Analysis_Al Model name: Model-1
** Generated by: Abaqus/CAE 2020
*Preprint, echo=NO, model=NO, history=NO, contact=NO
**
** PARTS
**
*Part, name=Part-1
*Node
      1, 0.0500000007,           0.
      2, 0.0520000011,           0.
      3, 0.0540000014,           0.
      4, 0.0560000017,           0.
      5, 0.0579999983,           0.
      6, 0.0599999987,           0.
      7,  0.061999999,           0.
      8,  0.064000003,           0.
      9, 0.0659999996,           0.
     10, 0.0680000037,           0.
     11, 0.0700000003,           0.
     12, 0.0719999969,           0.
     13,  0.074000001,           0.
     14, 0.0759999976,           0.
     15, 0.0780000016,           0.
     16, 0.0799999982,           0.
     17, 0.0820000023,           0.
     18, 0.0839999989,           0.
     19, 0.0860000029,           0.
     20, 0.0879999995,           0.
** ... 1091 like lines cut
*Element, type=CAX4R
   1,    1,    2,  103,  102
   2,    2,    3,  104,  103
   3,    3,    4,  105,  104
   4,    4,    5,  106,  105
   5,    5,    6,  107,  106
   6,    6,    7,  108,  107
   7,    7,    8,  109,  108
   8,    8,    9,  110,  109
   9,    9,   10,  111,  110
  10,   10,   11,  112,  111
  11,   11,   12,  113,  112
  12,   12,   13,  114,  113
  13,   13,   14,  115,  114
  14,   14,   15,  116,  115
  15,   15,   16,  117,  116
  16,   16,   17,  118,  117
  17,   17,   18,  119,  118
  18,   18,   19,  120,  119
  19,   19,   20,  121,  120
  20,   20,   21,  122,  121
** ... 980 like lines cut
*Nset, nset=Set-1, generate
    1,  1111,     1
*Elset, elset=Set-1, generate
    1,  1000,     1
** Section: DiscSection
*Solid Section, elset=Set-1, material=Aluminium
,
*End Part
**  
**
** ASSEMBLY
**
*Assembly, name=Assembly
**  
*Instance, name=Part-1-1, part=Part-1
*End Instance
**  
*Nset, nset=Set-1, instance=Part-1-1, generate
   1,  101,    1
*Elset, elset=Set-1, instance=Part-1-1, generate
   1,  100,    1
*Nset, nset=Set-2, instance=Part-1-1, generate
    1,  1111,     1
*Elset, elset=Set-2, instance=Part-1-1, generate
    1,  1000,     1
*End Assembly
** 
** MATERIALS
** 
*Material, name=Aluminium
*Density
2900.,
*Elastic
 7.1e+10, 0.33
** 
** BOUNDARY CONDITIONS
** 
** Name: BC1 Type: Displacement/Rotation
*Boundary
Set-1, 2, 2
** ----------------------------------------------------------------
** 
** STEP: LoadStep
** 
*Step, name=LoadStep, nlgeom=NO
*Static
1., 1., 1e-05, 1.
** 
** LOADS
** 
** Name: CentrifugalLoad   Type: Rotational body force
*Dload
Set-2, CENTRIF, 4.38651e+06,0.,0.,0.,0.0,1.0,0.0
** 
** OUTPUT REQUESTS
** 
*Restart, write, frequency=0
** 
** FIELD OUTPUT: F-Output-1
** 
*Output, field, variable=PRESELECT
** 
** HISTORY OUTPUT: H-Output-1
** 
*Output, history, variable=PRESELECT
*End Step
